# generated using pymatgen
data_YMn2
_symmetry_space_group_name_H-M   'P 1'
_cell_length_a   5.37820988
_cell_length_b   5.37820988
_cell_length_c   14.23794427
_cell_angle_alpha   90.00000000
_cell_angle_beta   90.00000000
_cell_angle_gamma   90.00000000
_symmetry_Int_Tables_number   1
_chemical_formula_structural   YMn2
_chemical_formula_sum   'Y8 Mn16'
_cell_volume   411.83455235
_cell_formula_units_Z   8
loop_
 _symmetry_equiv_pos_site_id
 _symmetry_equiv_pos_as_xyz
  1  'x, y, z'
loop_
 _atom_type_symbol
 _atom_type_oxidation_number
  Y0+  0.0
  Mn0+  0.0
loop_
 _atom_site_type_symbol
 _atom_site_label
 _atom_site_symmetry_multiplicity
 _atom_site_fract_x
 _atom_site_fract_y
 _atom_site_fract_z
 _atom_site_occupancy
  Y0+  Y1  1  0.000000  0.000000  0.500000  1
  Y0+  Y2  1  0.500000  0.500000  0.750000  1
  Y0+  Y3  1  0.000000  0.000000  0.000000  1
  Y0+  Y4  1  0.500000  0.500000  0.250000  1
  Y0+  Y5  1  0.500000  0.000000  0.375000  1
  Y0+  Y6  1  0.000000  0.500000  0.625000  1
  Y0+  Y7  1  0.500000  0.000000  0.875000  1
  Y0+  Y8  1  0.000000  0.500000  0.125000  1
  Mn0+  Mn9  1  0.250000  1.000000  0.187500  1
  Mn0+  Mn10  1  0.750000  0.500000  0.437500  1
  Mn0+  Mn11  1  0.250000  1.000000  0.687500  1
  Mn0+  Mn12  1  0.750000  0.500000  0.937500  1
  Mn0+  Mn13  1  1.000000  0.250000  0.312500  1
  Mn0+  Mn14  1  0.500000  0.750000  0.562500  1
  Mn0+  Mn15  1  1.000000  0.250000  0.812500  1
  Mn0+  Mn16  1  0.500000  0.750000  0.062500  1
  Mn0+  Mn17  1  0.500000  0.250000  0.562500  1
  Mn0+  Mn18  1  0.000000  0.750000  0.812500  1
  Mn0+  Mn19  1  0.500000  0.250000  0.062500  1
  Mn0+  Mn20  1  0.000000  0.750000  0.312500  1
  Mn0+  Mn21  1  0.250000  0.500000  0.437500  1
  Mn0+  Mn22  1  0.750000  0.000000  0.687500  1
  Mn0+  Mn23  1  0.250000  0.500000  0.937500  1
  Mn0+  Mn24  1  0.750000  0.000000  0.187500  1
loop_
 _atom_site_moment_label
 _atom_site_moment_crystalaxis_x
 _atom_site_moment_crystalaxis_y
 _atom_site_moment_crystalaxis_z
  Mn9  1.03185  -2.49179  -0.00458
  Mn10  -2.49280  -1.03754  -0.00494
  Mn11  -1.02865  2.49670  0.00170
  Mn12  2.49947  1.02915  -0.00489
  Mn13  1.03095  2.49479  0.00460
  Mn14  2.49432  -1.03028  0.00246
  Mn15  -1.03629  -2.49204  0.00489
  Mn16  -2.49633  1.02888  -0.00476
  Mn17  2.49688  -1.03485  0.00102
  Mn18  -1.03620  -2.49032  0.00170
  Mn19  -2.49014  1.03579  0.00121
  Mn20  1.02996  2.48955  -0.00426
  Mn21  -2.49238  -1.03479  0.00106
  Mn22  -1.03727  2.49197  -0.00296
  Mn23  2.49326  1.02886  -0.00080
  Mn24  1.03201  -2.49471  -0.00027
